<NUMBER OF ZONES> 387											
<NUMBER OF NODES> 3											
<FIRST THRU NODE> 1											
<NUMBER OF LINKS> 2950
<ORIGINAL HEADER>~	tail node	head node	capacity (veh/h)	length (miles)	fftt(min)	B	Power	speed limit (mph)	toll (cents)	link type	
<END OF METADATA>											


~	init_node	term_node	capacity	length	free_flow_time	b	power	speed	toll	link_type	;
	1	2	49500	0.86267	0	0.15	4	0	0	3	;
	2	3	49500	0.15267	0	0.15	4	0	0	3	;
	3	2	49500	0.20267	0	0.15	4	0	0	3	;
	